
Circuit: trabalho laboratorial 1

Doing analysis at TEMP = 27.000000 and TNOM = 27.000000


No. of Data Rows : 1
********************************************
Estado inicial
********************************************
table1_TAB
@c1[i] = 0.000000e+00
@gb[i] = -2.08664e-04
@r1[i] = 1.992363e-04
@r2[i] = 2.086637e-04
@r3[i] = -9.42740e-06
@r4[i] = 1.200363e-03
@r5[i] = -2.08664e-04
@r6[i] = 1.001127e-03
@r7[i] = 1.001127e-03
v(1) = 5.195199e+00
v(2) = 4.989875e+00
v(3) = 4.556619e+00
v(5) = 5.019215e+00
v(6) = 5.659286e+00
v(7) = -2.01262e+00
v(8) = -2.01262e+00
v(9) = -3.01963e+00
hd#branch = -1.00113e-03
vhd#branch = 1.001127e-03
vs#branch = -1.99236e-04
table1_END
ngspice-31 done
