
Circuit: trabalho laboratorial 1

Doing analysis at TEMP = 27.000000 and TNOM = 27.000000


No. of Data Rows : 1
********************************************
Estado inicial
********************************************
table2_TAB
@gb[i] = 1.053111e-17
@r1[i] = -1.00553e-17
@r2[i] = -1.05311e-17
@r3[i] = 4.757942e-19
@r4[i] = 2.124111e-18
@r5[i] = -2.82934e-03
@r6[i] = 1.734723e-18
@r7[i] = 1.830908e-18
v(1) = 0.000000e+00
v(2) = 1.036259e-14
v(3) = 3.222868e-14
v(5) = 8.881784e-15
v(6) = 8.678914e+00
v(7) = -3.48740e-15
v(8) = -3.48740e-15
v(9) = -5.32907e-15
hd#branch = 2.829335e-03
vhd#branch = 1.734723e-18
vs#branch = 1.005531e-17
vx#branch = -2.82934e-03
table2_END
********************************************
ngspice-31 done
